LTspice 26.0.1 for Windows
Circuit: C:\Users\danco\Documents\AA_UB\AA_SEMESTRE4\EdD\AA_PROJECTE\edd-project-grup-dijous-dj_a_combustible\LTspice_simulations\control_MOSFET&RELE.net
Start Time: Thu Mar 26 15:07:47 2026
C:\Users\danco\Documents\AA_UB\AA_SEMESTRE4\EdD\AA_PROJECTE\edd-project-grup-dijous-dj_a_combustible\LTspice_simulations\control_MOSFET&RELE.net(14): Ignoring unknown model parameter. This may or may not be a problem.
.model mosfet VDMOS(Rg=3 Vto=1.5 Rd=0.1 Rs=0.1 Rb=0.05 Kp=5 Cgs=50p Cgd=10p)
                                                                    ^^^^^^^
solver = Normal
Maximum thread count: 12
tnom = 27
temp = 27
method = trap
Compress1stOrder = true
Compress2ndOrder = true
Direct Newton iteration succeeded in finding operating point.
Total elapsed time: 0.166 seconds.

Files loaded:
C:\Users\danco\Documents\AA_UB\AA_SEMESTRE4\EdD\AA_PROJECTE\edd-project-grup-dijous-dj_a_combustible\LTspice_simulations\control_MOSFET&RELE.net
C:\Users\danco\AppData\Local\LTspice\lib\cmp\standard.mos

