LTspice 24.1.10 for Windows
Circuit: C:\PROJECTE EED\edd-project-grup-dijous-dj_a_combustible\LTspice_simulations\control_MOSFET&RELE.net
Start Time: Thu Mar 26 17:47:20 2026
C:\PROJECTE EED\edd-project-grup-dijous-dj_a_combustible\LTspice_simulations\control_MOSFET&RELE.net(14): Ignoring unknown model parameter. This may or may not be a problem.
.model alfredpapi VDMOS(Rg=3 Vto=1.5 Rd=0.1 Rs=0.1 Rb=0.05 Kp=5 Cgs=50p Cgd=10p)
                                                                       ^^^^^^^^
solver = Normal
Maximum thread count: 4
tnom = 27
temp = 27
method = trap
Direct Newton iteration for .op point succeeded.
Total elapsed time: 0.303 seconds.

Files loaded:
C:\PROJECTE EED\edd-project-grup-dijous-dj_a_combustible\LTspice_simulations\control_MOSFET&RELE.net
C:\Users\2edga\AppData\Local\LTspice\lib\cmp\standard.mos

